[TITLE]
Exported by StormDesk 3.1.0

[OPTIONS]
;;Option             Value
FLOW_UNITS           CMS
INFILTRATION         HORTON
FLOW_ROUTING         DYNWAVE
LINK_OFFSETS         ELEVATION
MIN_SLOPE            0
ALLOW_PONDING        YES
SKIP_STEADY_STATE    NO

START_DATE           10/06/2013
START_TIME           00:00:00
REPORT_START_DATE    10/06/2013
REPORT_START_TIME    00:00:00
END_DATE             10/07/2013
END_TIME             00:00:00
SWEEP_START          01/01
SWEEP_END            12/31
DRY_DAYS             5
REPORT_STEP          00:05:00
WET_STEP             00:05:00
DRY_STEP             01:00:00
ROUTING_STEP         00:00:30
RULE_STEP            00:00:00

INERTIAL_DAMPING     PARTIAL
NORMAL_FLOW_LIMITED  BOTH
FORCE_MAIN_EQUATION  H-W
VARIABLE_STEP        0.75
LENGTHENING_STEP     0
MIN_SURFAREA         12.566
MAX_TRIALS           8
HEAD_TOLERANCE       0.005
SYS_FLOW_TOL         0
LAT_FLOW_TOL         0
MINIMUM_STEP         0.5
THREADS              8

[FILES]
;;Interfacing Files

[EVAPORATION]
;;Data Source    Parameters
;;-------------- ----------------
CONSTANT         0               
DRY_ONLY         NO

[TEMPERATURE]
;;Data Element     Values     

[ADJUSTMENTS]
;;Parameter        Monthly Adjustments

[RAINGAGES]
;;Name           Format    Interval SCF      Source    
;;-------------- --------- ------ ------ ----------
RAIN00001        INTENSITY 0:05     0        TIMESERIES 100a

[SUBCATCHMENTS]
;;Name           Rain Gage        Outlet           Area     %Imperv  Width    %Slope   CurbLen  SnowPack        
;;-------------- ---------------- ---------------- -------- -------- -------- -------- -------- ----------------
1                RAIN00001        10YS122          3.89622880175 68.8372093023 197.388672465 1.43014873694 0                
2                RAIN00001        21YS368          9.99241862546 47.1428571429 316.107871232 1.34091275639 0                
3                RAIN00001        7YS463           2.39475127733 20       154.749839332 1.12637817475 0                
4                RAIN00001        8YS5447          4.52901111056 61.1764705881 212.814734231 0.970129370443 0                
5                RAIN00001        8YS684           29.5245609918 68.5800604231 543.365079774 1.86427068314 0                
6                RAIN00001        8YS1014          16.4342250905 80.0000000001 405.39147858 2.61592818742 0                
7                RAIN00001        8YS5182          3.86174192329 80       196.513152824 1.18801264339 0                
8                RAIN00001        8YS5304          4.95879983059 80       222.683628284 1.04789968819 0                
9                RAIN00001        10YS2020         9.53706875777 42.2857142857 308.821449348 4.3319916352 0                
10               RAIN00001        8YS5436          6.66272204686 74.3243243243 258.12249121 2.6748817716 0                
11               RAIN00001        8YS1037          11.964934902 58.3458646618 345.903670145 2.92748921929 0                
12               RAIN00001        8YS6201          14.3181504035 37.8881987578 378.393319226 2.49293836802 0                
13               RAIN00001        10YS66           5.29471386573 39.3220338984 230.102452523 1.18333224423 0                
14               RAIN00001        8YS1207          6.43230636394 47.8873239436 253.619919642 1.94836585754 0                
15               RAIN00001        8YS5414          7.95923519146 20       282.121165308 2.44904160474 0                
16               RAIN00001        8YS3467          3.19835643751 20       178.839493332 0.674061944759 0                
17               RAIN00001        8YS3376          2.28424102417 51.1999999998 151.137057804 0.66248688764 0                
18               RAIN00001        8YS5222          1.11052047286 80       105.381235183 1.43676673908 0                
19               RAIN00001        10YS53           2.06458655672 80.0000000002 143.68669238 1.65990830302 0                
20               RAIN00001        8YS290           4.216609004 64.3478260869 205.343833703 1.94705989212 0                
21               RAIN00001        21YS277          1.74514539311 44       132.103951232 1.05832109365 0                
22               RAIN00001        5YS660           12.4750521703 23.6641221373 353.200398787 2.60120221774 0                
23               RAIN00001        8YS1227          1.09570779251 24.6153846154 104.676061853 1.51427475044 0                
24               RAIN00001        10YS150          2.56073204555 57.9310344825 160.022874788 1.60575174093 0                
25               RAIN00001        10YS276          5.31464851366 56.2711864407 230.535214526 2.32122367571 0                
26               RAIN00001        8YS2281          16.3831605659 20       404.761171136 1.59408125995 0                
27               RAIN00001        21YS116          31.9634347008 20       565.362137933 1.63460060435 0                
28               RAIN00001        10YS950          8.59074328746 21.25    293.099697841 0.86790086031 0                
29               RAIN00001        10YS1106         10.557245979 30       324.919158853 2.01886427592 0                
30               RAIN00001        10YS6784         7.24286891407 96.7999999999 269.125786837 1.84569893635 0                
31               RAIN00001        10YS6751         1.96610952663 100      140.218027608 1.49132260561 0                
32               RAIN00001        10YS928          28.3195408577 20       532.161073902 1.52129724957 0                
33               RAIN00001        8YS1061A         14.7043211248 24.8484848486 383.462137959 1.24796261786 0                
34               RAIN00001        10YS1057         9.23189562726 20       303.840346683 1.32837141495 0                
35               RAIN00001        10YS1035         6.79251440354 20       260.624526926 0.915937129431 0                
36               RAIN00001        10YS899          31.378186734 20       560.162358018 2.59496779588 0                
37               RAIN00001        10YS6749         28.8730535269 91.876923077 537.336519575 1.16935310457 0                
38               RAIN00001        10YS6765         9.6689982871 61.1881188119 310.950129235 2.08082920743 0                
39               RAIN00001        10YS6777         4.89578767649 66.25    221.264269065 2.41997890671 0                
40               RAIN00001        10YS6701         21.9572093075 77.1428571426 468.585203645 1.61395067746 0                
41               RAIN00001        10YS6809         2.68380901059 100      163.823350307 1.56620439639 0                
42               RAIN00001        10YS6731         7.6485885241 100      276.560816532 1.52602641092 0                
43               RAIN00001        10YS6808         1.18295231691 100      108.76361142 1.05831073771 0                
44               RAIN00001        10YS6704         0.162374953422 100      40.2957756374 1.71579115294 0                
45               RAIN00001        10YS6726         11.9893514779 100      346.256429224 1.33307187898 0                
46               RAIN00001        10YS532          1.21459731989 34.5454545454 110.208770971 1.43972202265 0                
47               RAIN00001        8YS2306          15.5160830988 30       393.904596302 1.60189712094 0                
48               RAIN00001        8YS2166          6.68278281504 20       258.510789234 1.73543183784 0                
49               RAIN00001        10YS1086         15.8676071488 79.4413407821 398.341651711 1.67562846422 0                
50               RAIN00001        10YS1087         2.20789315852 33.0434782608 148.58980983 1.22672651672 0                
51               RAIN00001        10YS967          6.27120490081 20       250.423738907 1.5081990713 0                
52               RAIN00001        10YS1082         16.3164502126 40.7650273224 403.936259979 0.687249117396 0                
53               RAIN00001        10YS948          12.4732167348 24.6808510638 353.174414911 1.5320757328 0                
54               RAIN00001        10YS952          2.29729086545 20       151.568165043 1.48694438984 0                
55               RAIN00001        10YS947          5.31139812295 33.4482758621 230.464707123 1.56805294752 0                
56               RAIN00001        7YS562           0.19334309349 20       43.9707963869 2.02601869901 0                
57               RAIN00001        21YS117          0.306294749402 20       55.3439020491 0.803025310636 0                
58               RAIN00001        21YS122          2.04872320024 20       143.133615906 0.910011012689 0                
59               RAIN00001        8YS2279          5.30119557655 20       230.243253464 1.43719289771 0                
60               RAIN00001        8YS2136          2.47287270952 20       157.253702962 1.22876937687 0                
61               RAIN00001        8YS2138          4.839761972 59.2452830189 219.994590206 1.52097619336 0                
62               RAIN00001        8YS2145          18.0475760864 77.313432836 424.824388264 2.1980877916 0                
63               RAIN00001        10YS533          0.581812477383 65.7142857143 76.2766332099 0.85060066885 0                
64               RAIN00001        10YS215          4.0032519463 72.0930232557 200.081282141 1.77100140161 0                
65               RAIN00001        10YS189          7.56706698232 100      275.08302351 1.8069786116 0                
66               RAIN00001        10YS551          6.38410250976 34.0624999999 252.667815714 2.22772421728 0                
67               RAIN00001        10YS538          7.34477985152 40.8695652174 271.012543096 2.10122541587 0                
68               RAIN00001        10YS561          8.30891588963 40.4444444445 288.251901809 2.15730501426 0                
69               RAIN00001        10YS591          8.28052546762 50.989010989 287.759021885 1.23634958859 0                
70               RAIN00001        7YS32            2.92002421891 67.2727272727 170.880783557 0.325881796579 0                
71               RAIN00001        10YS289          1.62197663135 68       127.356846355 2.1320528388 0                
72               RAIN00001        10YS175          5.24421770446 82.0338983051 229.002569952 0.818277244335 0                
73               RAIN00001        10YS295          1.68286041282 70.9090909091 129.72510986 1.81021102145 0                
74               RAIN00001        10YS147          1.57495878612 79.9999999997 125.497361969 2.39723780995 0                
75               RAIN00001        10YS184          4.03297243767 88.4444444445 200.822619186 1.00633042412 0                
76               RAIN00001        10YS179          1.27792346807 78.6666666667 113.045277127 3.06913448042 0                
77               RAIN00001        10YS171          1.62342852253 55.0000000001 127.413834513 0.790747189522 0                
78               RAIN00001        10YS306          0.712708528357 80       84.4220663308 1.18780382226 0                
79               RAIN00001        10YS107          5.30932975101 63.2786885246 230.419828813 1.60757136664 0                
80               RAIN00001        10YS126          2.341850836 47.6923076923 153.031069917 1.38778839562 0                
81               RAIN00001        10YS132          3.26371341503 76.6666666668 180.657505104 1.78123670504 0                
82               RAIN00001        8YS1212          6.9619025439 38.4615384616 263.854174572 2.46514671482 0                
83               RAIN00001        10YS606          3.29786194024 68.6486486488 181.600163553 1.17927277254 0                
84               RAIN00001        7YS66            6.25056521014 23.4782608696 250.011303947 1.21712791175 0                
85               RAIN00001        7YS79            1.71200976189 20       130.843790907 2.98195895155 0                
86               RAIN00001        8YS1235          2.50944248287 66.6666666668 158.412199116 2.42732225827 0                
87               RAIN00001        8YS1244          2.98578502369 67.2727272727 172.794242488 2.43408850809 0                
88               RAIN00001        5YS656           9.54044431302 58.0869565215 308.876096728 2.87785321562 0                
89               RAIN00001        5YS640           4.12580461502 48.5714285715 203.120767403 1.71524724247 0                
90               RAIN00001        5YS3238          9.48849133273 20       308.033948336 0.824437294983 0                
91               RAIN00001        21YS405          6.18653905756 30.3896103896 248.727542857 0.904999074382 0                
92               RAIN00001        21YS384          5.69547825152 29.0566037735 238.652011337 0.956595101953 0                
93               RAIN00001        21YS374          2.12793972027 30.4347826087 145.874594096 0.784909145399 0                
94               RAIN00001        10YS2117         1.10708280641 20       105.218002567 1.23546733707 0                
95               RAIN00001        10YS2106         2.37215720437 20       154.018089988 1.09319977121 0                
96               RAIN00001        21YS328          13.5471831505 34.2105263157 368.06498272 0.79706262853 0                
97               RAIN00001        21YS304          6.83791251965 20.0000000001 261.494025164 1.06499465182 0                
98               RAIN00001        8YS2247          1.01919060541 63.6363636364 100.954970428 1.06606842726 0                
99               RAIN00001        8YS2231          1.83463900305 74.0000000001 135.448846545 0.853552552561 0                
100              RAIN00001        8YS2224          1.0421462981 80       102.085566957 1.39543425216 0                
101              RAIN00001        8YS2274          4.23050566427 20       205.681930764 0.934450924397 0                
102              RAIN00001        8YS2251          0.285148449888 79.9999999999 53.399293056 2.03169411029 0                
103              RAIN00001        8YS2132          3.24269601284 20       180.074873673 3.028837118 0                
104              RAIN00001        21YS285          3.16402386886 57.2972972972 177.877032493 4.24859625101 0                
105              RAIN00001        8YS2108          1.61848436259 79.9999999997 127.21966682 3.15756233249 0                
106              RAIN00001        9YS56            1.16942942114 80.0000000003 108.14016003 0.7549139627 0                
107              RAIN00001        8YS323           1.95435784011 79.9999999999 139.798349064 1.68334217385 0                
108              RAIN00001        8YS415           8.64884793357 24.4210526316 294.089237028 1.37667599941 0                
109              RAIN00001        21YS208          6.25346307769 20       250.069251962 1.36112706446 0                
110              RAIN00001        21YS177          8.58299135938 20       292.96742753 2.97411641053 0                
111              RAIN00001        9YS34            0.567122875188 80       75.3075610539 1.71605505503 0                
112              RAIN00001        8YS315           2.195022224 79.9999999998 148.156073922 1.23418250343 0                
113              RAIN00001        21YS214          5.53152849275 20       235.192017142 4.09425101777 0                
114              RAIN00001        9YS37            2.57346702233 79.9999999998 160.42029243 1.37301712027 0                
115              RAIN00001        7YS477           2.80769084929 20       167.561655795 0.494995594025 0                
116              RAIN00001        7YS596           0.181763130906 20       42.6336874908 0.968078482151 0                
117              RAIN00001        7YS581           0.193900557695 20       44.0341410379 1.23328198514 0                
118              RAIN00001        21YS159          5.95764750743 20       244.082926634 1.72461873293 0                
119              RAIN00001        7YS577           0.190639791029 20       43.6623168223 1.39442260138 0                
120              RAIN00001        7YS459           1.35548089804 20       116.425121775 1.47737069125 0                
121              RAIN00001        21YS154          8.3501168054 20       288.965686638 1.59180106928 0                
122              RAIN00001        7YS482           1.95197543763 20       139.713114547 1.27709313482 0                
123              RAIN00001        7YS599           0.164425700658 80       40.5494390415 1.39026850733 0                
124              RAIN00001        7YS517           0.954536434315 80       97.7003804657 0.714424565434 0                
125              RAIN00001        7YS523A          0.956975265853 42.0000000002 97.825112617 1.14786236514 0                
126              RAIN00001        10YS11           2.82682895049 80.0000000002 168.131762332 2.09390120662 0                
127              RAIN00001        8YS5175          1.98039942861 80.0000000002 140.726665157 2.07914792337 0                
128              RAIN00001        8YS5167          3.44842266503 80.0000000002 185.699290926 0.930146466251 0                
129              RAIN00001        10YS50           2.3467186163 36.3636363638 153.190032845 1.23229990051 0                
130              RAIN00001        10YS14           3.03690738336 34.9999999998 174.26724831 1.06079319282 0                
131              RAIN00001        7YS493           1.39172174356 80       117.97125682 0.487568890676 0                
132              RAIN00001        7YS503           0.657879768454 20       81.1097878467 0.351109847426 0                
133              RAIN00001        7YS612           0.191311717679 79.9999999998 43.7391949719 0.188647761941 0                
134              RAIN00001        7YS618           0.101828784514 80       31.9106227633 1.40092261632 0                
135              RAIN00001        7YS515           0.40925423958 79.9999999999 63.9729817642 0.947340935469 0                
136              RAIN00001        7YS523           0.249712449374 79.9999999998 49.9712366641 1.09135168791 0                
137              RAIN00001        7YS641           0.125559719497 80       35.4344069369 0.446507809684 0                
138              RAIN00001        7YS506           0.739791785893 79.9999999998 86.0111496199 0.386587679386 0                
139              RAIN00001        7YS622           0.112631323275 80       33.5605904708 0.634073525667 0                
140              RAIN00001        7YS527           1.08810313847 79.9999999998 104.312182341 0.716085493565 0                
141              RAIN00001        7YS645           0.1222287827 80.0000000003 34.9612332019 1.29867374209 0                
142              RAIN00001        7YS533           2.17749816823 79.9999999999 147.563483567 1.16035725735 0                
143              RAIN00001        7YS652           0.372597195016 80       61.0407400853 1.10591954365 0                
144              RAIN00001        8YS360           0.743036805409 40       86.1995826793 1.33862769231 0                
145              RAIN00001        8YS382           4.3131863 80.0000000001 207.682120078 0.592391743842 0                
146              RAIN00001        9YS27            2.96919572238 80       172.313543356 0.601134153083 0                
147              RAIN00001        8YS347           1.44917599704 79.9999999999 120.381726065 3.05104079718 0                
148              RAIN00001        8YS5297          2.06804775466 80       143.80708448 2.28839363043 0                
149              RAIN00001        8YS5287          2.33474422927 80       152.798698596 0.904668427431 0                
150              RAIN00001        8YS351           0.943614550686 80.0000000001 97.1398245153 0.971059112957 0                
151              RAIN00001        8YS5226          1.5752407331 74.5454545455 125.50859465 1.88275847759 0                
152              RAIN00001        8YS5152          2.93703747477 80       171.377871231 0.534953251481 0                
153              RAIN00001        8YS5228          1.3734783995 80       117.195494773 0.789989774248 0                
154              RAIN00001        8YS6651          2.36793289303 79.9999999999 153.880892025 2.81502100825 0                
155              RAIN00001        8YS7153          0.37451098727 80       61.1973028221 17.9230405263 0                
156              RAIN00001        8YS7156          0.536678896014 79.9999999999 73.2583712632 0.946212828159 0                
157              RAIN00001        8YS2064          0.259782174683 80       50.9688311307 0.948939000567 0                
158              RAIN00001        8YS2063          0.721145160583 79.9999999998 84.9202661667 1.04410155614 0                
159              RAIN00001        8YS2198A         0.207213001264 79.9999999998 45.5206547914 0.780193892618 0                
160              RAIN00001        9YS1             1.66462539411 20       129.020362506 0.491846588068 0                
161              RAIN00001        8YS3432          1.64250239282 25.0000000001 128.160149533 0.72282669255 0                
162              RAIN00001        8YS3388          4.23121449511 80       205.69916128 0.717754412156 0                
163              RAIN00001        8YS3415          1.07132002988 54.9999999998 103.504590714 0.382248821668 0                
164              RAIN00001        8YS3431          1.03021677244 80       101.499594701 0.864300191402 0                
165              RAIN00001        8YS2210          1.01833013567 79.9999999998 100.912344917 0.874461472034 0                
166              RAIN00001        8YS2198          0.247879141347 80       49.7874624124 1.1799633801 0                
167              RAIN00001        8YS2181          1.1183238968 78.75    105.750834361 2.2828394129 0                
168              RAIN00001        10YS2009         4.24934348083 80.0000000001 206.139357737 10.4350687699 0                
169              RAIN00001        8YS7149          1.86014260924 79.9999999999 136.387045178 1.95217964479 0                
170              RAIN00001        10YS2300         0.521091185025 80       72.1866459274 1.02970576286 0                
171              RAIN00001        8YS2177          0.329753765696 80.0000000001 57.4241905207 5.74024541747 0                
172              RAIN00001        10YS2008         2.01718731002 79.9999999999 142.027719478 0.833988951785 0                
173              RAIN00001        8YS2088          0.63192551563 80       79.4937428751 0.780105131865 0                
174              RAIN00001        8YS2085          0.816690177439 80       90.370912214 0.922817165653 0                
175              RAIN00001        8YS2071          0.95487443204 80       97.7176766015 0.926962665149 0                
176              RAIN00001        8YS5232          0.681419466269 20       82.5481354283 0.4483946346 0                
177              RAIN00001        10YS2092         2.40456779496 20       155.066688717 0.553668342945 0                
178              RAIN00001        9YS57            1.59514906209 20       126.29921069 2.29339631574 0                
179              RAIN00001        8YS5426          8.88920468712 20       298.14769305 0.675351314601 0                
180              RAIN00001        10YS2101         1.68757601546 20       129.906736371 0.814811340493 0                
181              RAIN00001        10YS2079         1.94698473266 20       139.53439478 0.640389224085 0                
182              RAIN00001        9YS71            4.55613552482 20       213.451060546 0.744577191983 0                
183              RAIN00001        8YS3448          3.1424575021 20       177.269780338 1.39926461059 0                
184              RAIN00001        10YS2033         1.80172785676 37.5609756099 134.228456624 1.46981932578 0                
185              RAIN00001        10YS2034         3.64289749819 25.625   190.863760263 2.78846319829 0                
186              RAIN00001        10YS2029         2.97610678065 20       172.513964091 2.21524425818 0                
187              RAIN00001        8YS5420          6.45289182098 20       254.025428274 1.13266342753 0                
188              RAIN00001        8YS5406          6.34794164874 20       251.951218468 2.8514200449 0                
189              RAIN00001        8YS5418          5.06669171462 48.5714285714 225.09312994 2.40910468286 0                
190              RAIN00001        5YS349           1.8989297503 20       137.801660015 3.61641100645 0                
191              RAIN00001        5YS382-2         0.737409937306 20       85.8725763737 0.578968584538 0                
192              RAIN00001        10YS85           2.4812243393 55.625   157.519025495 2.29949491186 0                
193              RAIN00001        8YS766           5.90291849785 29.0909090909 242.95922493 2.32297488054 0                
194              RAIN00001        8YS1191          3.06448679303 27.8260869566 175.056756311 2.52995365007 0                
195              RAIN00001        8YS1179          1.89568807372 39.9999999999 137.683988674 2.5336460991 0                
196              RAIN00001        8YS1166          3.83321848054 32.6315789473 195.786068977 2.17838803058 0                
197              RAIN00001        8YS1175A         1.99885385282 33.3333333333 141.380828008 0.988074927458 0                
198              RAIN00001        10YS91           2.4628652848 32       156.935186775 0.611120356454 0                
199              RAIN00001        8YS3704          2.21750248438 80       148.912809536 2.74862784551 0                
200              RAIN00001        5YS338           5.09502051498 80.0000000001 225.721521238 1.71137437928 0                
201              RAIN00001        8YS728           16.5403675937 32.8571428571 406.698507419 3.3831226172 0                
202              RAIN00001        8YS6179          2.54283433178 69.6153846155 159.462670609 3.24027413888 0                
203              RAIN00001        8YS733           4.86719607598 60.3448275862 220.617226797 2.21193264547 0                
204              RAIN00001        8YS738           5.09097993878 45.2173913044 225.63199992 2.07451995819 0                
205              RAIN00001        8YS746           6.08712734635 45.1351351352 246.72104382 2.56536870724 0                
206              RAIN00001        8YS754           6.60453564942 78.0000000001 256.99291137 2.45628233841 0                
207              RAIN00001        8YS1046          5.50491744501 80.0000000003 234.625604848 2.00434396022 0                
208              RAIN00001        8YS1053          1.33815358607 80.0000000001 115.678588601 2.26934048533 0                
209              RAIN00001        8YS1067          0.487739705322 79.9999999999 69.8383637639 1.35909375974 0                
210              RAIN00001        8YS1063          0.565308883325 70.4000000001 75.1870256976 4.87562004448 0                
211              RAIN00001        8YS5440          4.43702010583 80       210.642353429 1.99606690804 0                
212              RAIN00001        8YS1058          0.810885612127 39.411764706 90.0491872327 1.82912624386 0                
213              RAIN00001        10YS2047         3.07206501801 36.2711864407 175.273073175 4.08385736321 0                
214              RAIN00001        10YS2024         5.30004056799 80       230.218169743 2.69877579808 0                
215              RAIN00001        8YS2323          0.846220376109 80.0000000002 91.990237314 1.03646555433 0                
216              RAIN00001        8YS5299          2.40922475328 78.7234042554 155.216775939 10.0552787514 0                
217              RAIN00001        8YS7141          4.0797339475 48.4210526315 201.983512879 4.94826806635 0                
218              RAIN00001        8YS7132          6.79516687164 80       260.67540873 3.32083524466 0                
219              RAIN00001        8YS2326          1.75406448547 80       132.441099568 1.29079742888 0                
220              RAIN00001        8YS2342          2.91238897404 80       170.657228796 1.9398977739 0                
221              RAIN00001        8YS6673          1.27026891282 80.0000000003 112.706207141 1.2596908598 0                
222              RAIN00001        8YS5188          2.31791591922 46.956521739 152.247033443 4.28708597273 0                
223              RAIN00001        8YS5446          6.06786101651 68.3116883117 246.330286739 3.34742790913 0                
224              RAIN00001        8YS1022          6.78668918308 80       260.512747924 2.5      0                

[SUBAREAS]
;;Subcatchment   N-Imperv   N-Perv     S-Imperv   S-Perv     PctZero    RouteTo    PctRouted
;;-------------- ---------- ---------- ---------- ---------- ---------- ---------- ----------
1                0.018      0.1        0.05       0.05       25         OUTLET     100        
2                0.018      0.1        0.05       0.05       25         OUTLET     100        
3                0.018      0.1        0.05       0.05       25         OUTLET     100        
4                0.018      0.1        0.05       0.05       25         OUTLET     100        
5                0.018      0.1        0.05       0.05       25         OUTLET     100        
6                0.018      0.1        0.05       0.05       25         OUTLET     100        