[TITLE]
建筑小区雨水模型
本示例是一个建筑小区雨水模型，用地面积为6.5公顷。雨水管径从DN300-DN600。系统有三个雨水排口，接入到市政雨水管线。

模型评估：在1年一遇，2年一遇和5年一遇的降雨情况下，评估系统中的雨水管道超载和积水情况。


Exported by StormDesk 3.1.0

[OPTIONS]
;;Option             Value
FLOW_UNITS           CMS
INFILTRATION         HORTON
FLOW_ROUTING         DYNWAVE
LINK_OFFSETS         ELEVATION
MIN_SLOPE            0
ALLOW_PONDING        YES
SKIP_STEADY_STATE    NO

START_DATE           12/31/1899
START_TIME           00:00:00
REPORT_START_DATE    12/31/1899
REPORT_START_TIME    00:00:00
END_DATE             12/31/1899
END_TIME             05:00:00
SWEEP_START          01/01
SWEEP_END            12/31
DRY_DAYS             5
REPORT_STEP          00:00:30
WET_STEP             00:00:30
DRY_STEP             01:00:00
ROUTING_STEP         00:00:30
RULE_STEP            00:00:00

INERTIAL_DAMPING     PARTIAL
NORMAL_FLOW_LIMITED  BOTH
FORCE_MAIN_EQUATION  H-W
VARIABLE_STEP        0.75
LENGTHENING_STEP     0
MIN_SURFAREA         12.566
MAX_TRIALS           8
HEAD_TOLERANCE       0.005
SYS_FLOW_TOL         0
LAT_FLOW_TOL         0
MINIMUM_STEP         0.5
THREADS              8

[FILES]
;;Interfacing Files

[EVAPORATION]
;;Data Source    Parameters
;;-------------- ----------------
CONSTANT         0               
DRY_ONLY         NO

[TEMPERATURE]
;;Data Element     Values     

[ADJUSTMENTS]
;;Parameter        Monthly Adjustments

[RAINGAGES]
;;Name           Format    Interval SCF      Source    
;;-------------- --------- ------ ------ ----------
RAIN00001        INTENSITY 0:01     0        TIMESERIES 1年一遇

[SUBCATCHMENTS]
;;Name           Rain Gage        Outlet           Area     %Imperv  Width    %Slope   CurbLen  SnowPack        
;;-------------- ---------------- ---------------- -------- -------- -------- -------- -------- ----------------
SUB00001         RAIN00001        J13              0.086895703125 55       16       0.2      0                
SUB00002         RAIN00001        J14              0.091206359863 55       17       0.2      0                
SUB00003         RAIN00001        J15              0.038499784851 55       11       0.2      0                
SUB00004         RAIN00001        J17              0.044832577515 55       11       0.2      0                
SUB00005         RAIN00001        J18              0.069829240417 55       14       0.2      0                
SUB00006         RAIN00001        J11              0.074489424133 55       15       0.2      0                
SUB00007         RAIN00001        J12              0.029185554504 55       9        0.2      0                
SUB00008         RAIN00001        J77              0.031922286987 55       10       0.2      0                
SUB00009         RAIN00001        J16              0.046595991516 55       12       0.2      0                
SUB00010         RAIN00001        J2               0.037785783386 55       10       0.2      0                
SUB00011         RAIN00001        J10              0.041662688446 55       11       0.2      0                
SUB00012         RAIN00001        J19              0.057500553894 55       13       0.2      0                
SUB00013         RAIN00001        J4               0.070714389801 55       15       0.2      0                
SUB00014         RAIN00001        J3               0.097158183289 55       17       0.2      0                
SUB00015         RAIN00001        J8               0.093673154449 55       17       0.2      0                
SUB00016         RAIN00001        J9               0.082243787384 55       16       0.2      0                
SUB00017         RAIN00001        J1               0.049547451782 55       12       0.2      0                
SUB00018         RAIN00001        J7               0.152690457153 55       22       0.2      0                
SUB00019         RAIN00001        J6               0.066814367676 55       14       0.2      0                
SUB00020         RAIN00001        J5               0.102091667938 55       18       0.2      0                
SUB00021         RAIN00001        J20              0.141366741943 55       21       0.2      0                
SUB00022         RAIN00001        J0               0.048082378387 55       12       0.2      0                
SUB00023         RAIN00001        J73              0.014704614258 55       6        0.2      0                
SUB00024         RAIN00001        J57              0.009541551208 55       5        0.2      0                
SUB00025         RAIN00001        J23              0.117532388306 55       19       0.2      0                
SUB00026         RAIN00001        J22              0.121914349365 55       19       0.2      0                
SUB00027         RAIN00001        J21              0.132960083008 55       20       0.2      0                
SUB00028         RAIN00001        J79              0.072293972015 55       15       0.2      0                
SUB00029         RAIN00001        J75              0.00762292099 55       4        0.2      0                
SUB00030         RAIN00001        J120             0.002278649139 55       2        0.2      0                
SUB00031         RAIN00001        J76              0.007394295502 55       4        0.2      0                
SUB00032         RAIN00001        J74              0.000917483521 55       1        0.2      0                
SUB00033         RAIN00001        J103             0.009499728394 55       5        0.2      0                
SUB00034         RAIN00001        J25              0.051323561859 55       12       0.2      0                
SUB00035         RAIN00001        J24              0.072850133514 55       15       0.2      0                
SUB00036         RAIN00001        J104             0.010644202423 55       5        0.2      0                
SUB00037         RAIN00001        J52              0.028887215424 55       9        0.2      0                
SUB00038         RAIN00001        J34              0.042686019135 55       11       0.2      0                
SUB00039         RAIN00001        J78              0.038765423584 55       11       0.2      0                
SUB00040         RAIN00001        J35              0.077780393982 55       15       0.2      0                
SUB00041         RAIN00001        J89              0.178112467957 55       23       0.2      0                
SUB00042         RAIN00001        J36              0.070991127014 55       15       0.2      0                
SUB00043         RAIN00001        J37              0.09486316452 55       17       0.2      0                
SUB00044         RAIN00001        J102             0.131458792877 55       20       0.2      0                
SUB00045         RAIN00001        J38              0.034976776123 55       10       0.2      0                
SUB00046         RAIN00001        J54              0.046173356343 55       9        0.2      0                
SUB00047         RAIN00001        J39              0.076349093628 55       15       0.2      0                
SUB00048         RAIN00001        J85              0.049289318848 55       12       0.2      0                
SUB00049         RAIN00001        J40              0.087780729675 55       16       0.2      0                
SUB00050         RAIN00001        NJ115            0.07249404068 55       15       0.2      0                
SUB00051         RAIN00001        J41              0.115746076965 55       19       0.2      0                
SUB00052         RAIN00001        J42              0.111333664703 55       18       0.2      0                
SUB00053         RAIN00001        J43              0.110111639404 55       18       0.2      0                
SUB00054         RAIN00001        J44              0.129690127563 55       20       0.2      0                
SUB00055         RAIN00001        J33              0.059945584106 55       13       0.2      0                
SUB00056         RAIN00001        J84              0.023811113739 55       8        0.2      0                
SUB00057         RAIN00001        J55              0.028459370422 55       9        0.2      0                
SUB00058         RAIN00001        J31              0.021000408936 55       8        0.2      0                
SUB00059         RAIN00001        J111             0.007881402588 55       5        0.2      0                
SUB00060         RAIN00001        J110             0.041767108154 55       11       0.2      0                
SUB00061         RAIN00001        J56              0.03405276413 55       10       0.2      0                
SUB00062         RAIN00001        J32              0.09864916687 55       17       0.2      0                
SUB00063         RAIN00001        J90              0.155315766907 55       22       0.2      0                
SUB00064         RAIN00001        J59              0.088523838806 55       16       0.2      0                
SUB00065         RAIN00001        J58              0.072928868866 55       15       0.2      0                
SUB00066         RAIN00001        J87              0.140611058044 55       21       0.2      0                
SUB00067         RAIN00001        J95              0.078482189941 55       15       0.2      0                
SUB00068         RAIN00001        J81              0.031249829865 55       9        0.2      0                
SUB00069         RAIN00001        J45              0.019080168915 55       7        0.2      0                
SUB00070         RAIN00001        J92              0.028754955292 55       9        0.2      0                
SUB00071         RAIN00001        J108             0.015232331085 55       6        0.2      0                
SUB00072         RAIN00001        J30              0.01214480896 55       6        0.2      0                
SUB00073         RAIN00001        J109             0.028756900024 55       9        0.2      0                
SUB00074         RAIN00001        J93              0.031955512238 55       10       0.2      0                
SUB00075         RAIN00001        J106             0.023268977356 55       8        0.2      0                
SUB00076         RAIN00001        J107             0.019139962006 55       7        0.2      0                
SUB00077         RAIN00001        J80              0.048128987122 55       12       0.2      0                
SUB00078         RAIN00001        J27              0.0666894104 55       14       0.2      0                
SUB00079         RAIN00001        J61              0.100577840424 55       17       0.2      0                
SUB00080         RAIN00001        J60              0.099104667664 55       17       0.2      0                
SUB00081         RAIN00001        J88              0.060688594055 55       13       0.2      0                
SUB00082         RAIN00001        J83              0.042874452209 55       11       0.2      0                
SUB00083         RAIN00001        J26              0.036890379333 55       10       0.2      0                
SUB00084         RAIN00001        J86              0.038944058228 55       11       0.2      0                
SUB00085         RAIN00001        J29              0.03330750885 55       10       0.2      0                
SUB00086         RAIN00001        J28              0.037614785767 55       10       0.2      0                
SUB00087         RAIN00001        J50              0.086449298096 55       16       0.2      0                
SUB00088         RAIN00001        J49              0.05374781723 55       13       0.2      0                
SUB00089         RAIN00001        J48              0.06141627655 55       13       0.2      0                
SUB00090         RAIN00001        J47              0.071313827515 55       15       0.2      0                
SUB00091         RAIN00001        J91              0.043909667969 55       11       0.2      0                
SUB00092         RAIN00001        J51              0.057331877136 55       13       0.2      0                
SUB00093         RAIN00001        J97              0.007513544464 55       4        0.2      0                
SUB00094         RAIN00001        J71              0.059122607422 55       13       0.2      0                
SUB00095         RAIN00001        J70              0.063106682587 55       14       0.2      0                
SUB00096         RAIN00001        J96              0.009078840637 55       5        0.2      0                
SUB00097         RAIN00001        J94              0.035956962585 55       10       0.2      0                
SUB00098         RAIN00001        NJ116            0.025951281738 55       9        0.2      0                
SUB00099         RAIN00001        J65              0.030292275238 55       9        0.2      0                
SUB00100         RAIN00001        J46              0.025136665344 55       8        0.2      0                
SUB00101         RAIN00001        J105             0.012544536591 55       6        0.2      0                
SUB00102         RAIN00001        J67              0.079019490814 55       15       0.2      0                
SUB00103         RAIN00001        J68              0.065918193817 55       14       0.2      0                
SUB00104         RAIN00001        J101             0.006274264526 55       4        0.2      0                
SUB00105         RAIN00001        J100             0.007209679413 55       4        0.2      0                
SUB00106         RAIN00001        J66              0.040233364105 55       11       0.2      0                
SUB00107         RAIN00001        J69              0.100620852661 55       17       0.2      0                
SUB00108         RAIN00001        J64              0.031623931122 55       10       0.2      0                
SUB00109         RAIN00001        J98              0.0080065979 55       5        0.2      0                
SUB00110         RAIN00001        J99              0.005639665222 55       4        0.2      0                
SUB00111         RAIN00001        J63              0.050350437927 55       12       0.2      0                
SUB00112         RAIN00001        J82              0.137587963867 55       20       0.2      0                
SUB00113         RAIN00001        J72              0.051937943268 55       12       0.2      0                
SUB00114         RAIN00001        J62              0.041988586426 55       11       0.2      0                

[SUBAREAS]
;;Subcatchment   N-Imperv   N-Perv     S-Imperv   S-Perv     PctZero    RouteTo    PctRouted
;;-------------- ---------- ---------- ---------- ---------- ---------- ---------- ----------
SUB00001         0.018      0.1        0.05       0.05       25         OUTLET     100        
SUB00002         0.018      0.1        0.05       0.05       25         OUTLET     100        
SUB00003         0.018      0.1        0.05       0.05       25         OUTLET     100        
SUB00004         0.018      0.1        0.05       0.05       25         OUTLET     100        
SUB00005         0.018      0.1        0.05       0.05       25         OUTLET     100        
SUB00006         0.018      0.1        0.05       0.05       25         OUTLET     100        
SUB00007         0.018      0.1        0.05       0.05       25         OUTLET     100        
SUB00008         0.018      0.1        0.05       0.05       25         OUTLET     100        
SUB00009         0.018      0.1        0.05       0.05       25         OUTLET     100        
SUB00010         0.018      0.1        0.05       0.05       25         OUTLET     100        
SUB00011         0.018      0.1        0.05       0.05       25         OUTLET     100        
SUB00012         0.018      0.1        0.05       0.05       25         OUTLET     100        
SUB00013         0.018      0.1        0.05       0.05       25         OUTLET     100        
SUB00014         0.018      0.1        0.05       0.05       25         OUTLET     100        
SUB00015         0.018      0.1        0.05       0.05       25         OUTLET     100        
SUB00016         0.018      0.1        0.05       0.05       25         OUTLET     100        
SUB00017         0.018      0.1        0.05       0.05       25         OUTLET     100        
SUB00018         0.018      0.1        0.05       0.05       25         OUTLET     100        
SUB00019         0.018      0.1        0.05       0.05       25         OUTLET     100        
SUB00020         0.018      0.1        0.05       0.05       25         OUTLET     100        
SUB00021         0.018      0.1        0.05       0.05       25         OUTLET     100        
SUB00022         0.018      0.1        0.05       0.05       25         OUTLET     100        
SUB00023         0.018      0.1        0.05       0.05       25         OUTLET     100        
SUB00024         0.018      0.1        0.05       0.05       25         OUTLET     100        
SUB00025         0.018      0.1        0.05       0.05       25         OUTLET     100        
SUB00026         0.018      0.1        0.05       0.05       25         OUTLET     100        
SUB00027         0.018      0.1        0.05       0.05       25         OUTLET     100        
SUB00028         0.018      0.1        0.05       0.05       25         OUTLET     100        
SUB00029         0.018      0.1        0.05       0.05       25         OUTLET     100        
SUB00030         0.018      0.1        0.05       0.05       25         OUTLET     100        
SUB00031         0.018      0.1        0.05       0.05       25         OUTLET     100        
SUB00032         0.018      0.1        0.05       0.05       25         OUTLET     100        
SUB00033         0.018      0.1        0.05       0.05       25         OUTLET     100        
SUB00034         0.018      0.1        0.05       0.05       25         OUTLET     100        
SUB00035         0.018      0.1        0.05       0.05       25         OUTLET     100        
SUB00036         0.018      0.1        0.05       0.05       25         OUTLET     100        
SUB00037         0.018      0.1        0.05       0.05       25         OUTLET     100        
SUB00038         0.018      0.1        0.05       0.05       25         OUTLET     100        
SUB00039         0.018      0.1        0.05       0.05       25         OUTLET     100        
SUB00040         0.018      0.1        0.05       0.05       25         OUTLET     100        
SUB00041         0.018      0.1        0.05       0.05       25         OUTLET     100        
SUB00042         0.018      0.1        0.05       0.05       25         OUTLET     100        
SUB00043         0.018      0.1        0.05       0.05       25         OUTLET     100        
SUB00044         0.018      0.1        0.05       0.05       25         OUTLET     100        
SUB00045         0.018      0.1        0.05       0.05       25         OUTLET     100        
SUB00046         0.018      0.1        0.05       0.05       25         OUTLET     100        
SUB00047         0.018      0.1        0.05       0.05       25         OUTLET     100        
SUB00048         0.018      0.1        0.05       0.05       25         OUTLET     100        
SUB00049         0.018      0.1        0.05       0.05       25         OUTLET     100        
SUB00050         0.018      0.1        0.05       0.05       25         OUTLET     100        
SUB00051         0.018      0.1        0.05       0.05       25         OUTLET     100        
SUB00052         0.018      0.1        0.05       0.05       25         OUTLET     100        
SUB00053         0.018      0.1        0.05       0.05       25         OUTLET     100        
SUB00054         0.018      0.1        0.05       0.05       25         OUTLET     100        
SUB00055         0.018      0.1        0.05       0.05       25         OUTLET     100        
SUB00056         0.018      0.1        0.05       0.05       25         OUTLET     100        
SUB00057         0.018      0.1        0.05       0.05       25         OUTLET     100        
SUB00058         0.018      0.1        0.05       0.05       25         OUTLET     100        
SUB00059         0.018      0.1        0.05       0.05       25         OUTLET     100        
SUB00060         0.018      0.1        0.05       0.05       25         OUTLET     100        
SUB00061         0.018      0.1        0.05       0.05       25         OUTLET     100        
SUB00062         0.018      0.1        0.05       0.05       25         OUTLET     100        
SUB00063         0.018      0.1        0.05       0.05       25         OUTLET     100        
SUB00064         0.018      0.1        0.05       0.05       25         OUTLET     100        
SUB00065         0.018      0.1        0.05       0.05       25         OUTLET     100        
SUB00066         0.018      0.1        0.05       0.05       25         OUTLET     100        
SUB00067         0.018      0.1        0.05       0.05       25         OUTLET     100        
SUB00068         0.018      0.1        0.05       0.05       25         OUTLET     100        
SUB00069         0.018      0.1        0.05       0.05       25         OUTLET     100        
SUB00070         0.018      0.1        0.05       0.05       25         OUTLET     100        
SUB00071         0.018      0.1        0.05       0.05       25         OUTLET     100        
SUB00072         0.018      0.1        0.05       0.05       25         OUTLET     100        
SUB00073         0.018      0.1        0.05       0.05       25         OUTLET     100        
SUB00074         0.018      0.1        0.05       0.05       25         OUTLET     100        
SUB00075         0.018      0.1        0.05       0.05       25         OUTLET     100        
SUB00076         0.018      0.1        0.05       0.05       25         OUTLET     100        
SUB00077         0.018      0.1        0.05       0.05       25         OUTLET     100        
SUB00078         0.018      0.1        0.05       0.05       25         OUTLET     100        
SUB00079         0.018      0.1        0.05       0.05       25         OUTLET     100        
SUB00080         0.018      0.1        0.05       0.05       25         OUTLET     100        
SUB00081         0.018      0.1        0.05       0.05       25         OUTLET     100        
SUB00082         0.018      0.1        0.05       0.05       25         OUTLET     100        
SUB00083         0.018      0.1        0.05       0.05       25         OUTLET     100        
SUB00084         0.018      0.1        0.05       0.05       25         OUTLET     100        
SUB00085         0.018      0.1        0.05       0.05       25         OUTLET     100        
SUB00086         0.018      0.1        0.05       0.05       25         OUTLET     100        
SUB00087         0.018      0.1        0.05       0.05       25         OUTLET     100        
SUB00088         0.018      0.1        0.05       0.05       25         OUTLET     100        
SUB00089         0.018      0.1        0.05       0.05       25         OUTLET     100        
SUB00090         0.018      0.1        0.05       0.05       25         OUTLET     100        
SUB00091         0.018      0.1        0.05       0.05       25         OUTLET     100        
SUB00092         0.018      0.1        0.05       0.05       25         OUTLET     100        
SUB00093         0.018      0.1        0.05       0.05       25         OUTLET     100        
SUB00094         0.018      0.1        0.05       0.05       25         OUTLET     100        
SUB00095         0.018      0.1        0.05       0.05       25         OUTLET     100        
SUB00096         0.018      0.1        0.05       0.05       25         OUTLET     100        
SUB00097         0.018      0.1        0.05       0.05       25         OUTLET     100        
SUB00098         0.018      0.1        0.05       0.05       25         OUTLET     100        
SUB00099         0.018      0.1        0.05       0.05       25         OUTLET     100        
SUB00100         0.018      0.1        0.05       0.05       25         OUTLET     100        
SUB00101         0.018      0.1        0.05       0.05       25         OUTLET     100        
SUB00102         0.018      0.1        0.05       0.05       25         OUTLET     100        
SUB00103         0.018      0.1        0.05       0.05       25         OUTLET     100        
SUB00104         0.018      0.1        0.05       0.05       25         OUTLET     100        
SUB00105         0.018      0.1        0.05       0.05       25         OUTLET     100        
SUB00106         0.018      0.1        0.05       0.05       25         OUTLET     100        
SUB00107         0.018      0.1        0.05       0.05       25         OUTLET     100        
SUB00108         0.018      0.1        0.05       0.05       25         OUTLET     100        
SUB00109         0.018      0.1        0.05       0.05       25         OUTLET     100        
SUB00110         0.018      0.1        0.05       0.05       25         OUTLET     100        
SUB00111         0.018      0.1        0.05       0.05       25         OUTLET     100        
SUB00112         0.018      0.1        0.05       0.05       25         OUTLET     100        
SUB00113         0.018      0.1        0.05       0.05       25         OUTLET     100        
SUB00114         0.018      0.1        0.05       0.05       25         OUTLET     100        

[INFILTRATION]
;;Subcatchment   Param1     Param2     Param3     Param4     Param5  
;;-------------- ---------- ---------- ---------- ---------- ----------
SUB00001         88.5       3.5        2          14         0          HORTON          
SUB00002         88.5       3.5        2          14         0          HORTON          
SUB00003         88.5       3.5        2          14         0          HORTON          
SUB00004         88.5       3.5        2          14         0          HORTON          
SUB00005         88.5       3.5        2          14         0          HORTON          
SUB00006         88.5       3.5        2          14         0          HORTON          
SUB00007         88.5       3.5        2          14         0          HORTON          
SUB00008         88.5       3.5        2          14         0          HORTON          
SUB00009         88.5       3.5        2          14         0          HORTON          
SUB00010         88.5       3.5        2          14         0          HORTON          
SUB00011         88.5       3.5        2          14         0          HORTON          
SUB00012         88.5       3.5        2          14         0          HORTON          
SUB00013         88.5       3.5        2          14         0          HORTON          
SUB00014         88.5       3.5        2          14         0          HORTON          
SUB00015         88.5       3.5        2          14         0          HORTON          
SUB00016         88.5       3.5        2          14         0          HORTON          
SUB00017         88.5       3.5        2          14         0          HORTON          
SUB00018         88.5       3.5        2          14         0          HORTON          
SUB00019         88.5       3.5        2          14         0          HORTON          
SUB00020         88.5       3.5        2          14         0          HORTON          
SUB00021         88.5       3.5        2          14         0          HORTON          
SUB00022         88.5       3.5        2          14         0          HORTON          
SUB00023         88.5       3.5        2          14         0          HORTON          
SUB00024         88.5       3.5        2          14         0          HORTON          
SUB00025         88.5       3.5        2          14         0          HORTON          
SUB00026         88.5       3.5        2          14         0          HORTON          
SUB00027         88.5       3.5        2          14         0          HORTON          
SUB00028         88.5       3.5        2          14         0          HORTON          
SUB00029         88.5       3.5        2          14         0          HORTON          
SUB00030         88.5       3.5        2          14         0          HORTON          
SUB00031         88.5       3.5        2          14         0          HORTON          
SUB00032         88.5       3.5        2          14         0          HORTON          
SUB00033         88.5       3.5        2          14         0          HORTON          
SUB00034         88.5       3.5        2          14         0          HORTON          
SUB00035         88.5       3.5        2          14         0          HORTON          
SUB00036         88.5       3.5        2          14         0          HORTON          
SUB00037         88.5       3.5        2          14         0          HORTON          
SUB00038         88.5       3.5        2          14         0          HORTON          
SUB00039         88.5       3.5        2          14         0          HORTON          
SUB00040         88.5       3.5        2          14         0          HORTON          
SUB00041         88.5       3.5        2          14         0          HORTON          
SUB00042         88.5       3.5        2          14         0          HORTON          
SUB00043         88.5       3.5        2          14         0          HORTON          
SUB00044         88.5       3.5        2          14         0          HORTON          
SUB00045         88.5       3.5        2          14         0          HORTON          
SUB00046         88.5       3.5        2          14         0          HORTON          
SUB00047         88.5       3.5        2          14         0          HORTON          
SUB00048         88.5       3.5        2          14         0          HORTON          
SUB00049         88.5       3.5        2          14         0          HORTON          